
---------- Begin Simulation Statistics ----------
final_tick                                   48611500                       # Number of ticks from beginning of simulation (restored from checkpoints and never reset)
host_inst_rate                                 239807                       # Simulator instruction rate (inst/s)
host_mem_usage                                 678752                       # Number of bytes of host memory used
host_op_rate                                   278647                       # Simulator op (including micro ops) rate (op/s)
host_seconds                                     0.14                       # Real time elapsed on the host
host_tick_rate                              336943753                       # Simulator tick rate (ticks/s)
sim_freq                                 1000000000000                       # Frequency of simulated ticks
sim_insts                                       34562                       # Number of instructions simulated
sim_ops                                         40196                       # Number of ops (including micro ops) simulated
sim_seconds                                  0.000049                       # Number of seconds simulated
sim_ticks                                    48611500                       # Number of ticks simulated
system.cpu.branchPred.BTBCorrect                    0                       # Number of correct BTB predictions (this stat may not work properly.
system.cpu.branchPred.BTBHitPct             39.483501                       # BTB Hit Percentage
system.cpu.branchPred.BTBHits                    2752                       # Number of BTB hits
system.cpu.branchPred.BTBLookups                 6970                       # Number of BTB lookups
system.cpu.branchPred.RASInCorrect                  5                       # Number of incorrect RAS predictions.
system.cpu.branchPred.condIncorrect               807                       # Number of conditional branches incorrect
system.cpu.branchPred.condPredicted              5670                       # Number of conditional branches predicted
system.cpu.branchPred.indirectHits                261                       # Number of indirect target hits.
system.cpu.branchPred.indirectLookups             564                       # Number of indirect predictor lookups.
system.cpu.branchPred.indirectMisses              303                       # Number of indirect misses.
system.cpu.branchPred.lookups                    8512                       # Number of BP lookups
system.cpu.branchPred.usedRAS                     779                       # Number of times the RAS was used to get a target.
system.cpu.branchPredindirectMispredicted           78                       # Number of mispredicted indirect branches.
system.cpu.committedInsts                       34562                       # Number of instructions committed
system.cpu.committedOps                         40196                       # Number of ops (including micro ops) committed
system.cpu.cpi                               2.813003                       # CPI: cycles per instruction
system.cpu.discardedOps                          2230                       # Number of ops (including micro ops) which were discarded before commit
system.cpu.dtb.accesses                             0                       # DTB accesses
system.cpu.dtb.align_faults                         0                       # Number of TLB faults due to alignment restrictions
system.cpu.dtb.domain_faults                        0                       # Number of TLB faults due to domain restrictions
system.cpu.dtb.flush_entries                        0                       # Number of entries that have been flushed from TLB
system.cpu.dtb.flush_tlb                            0                       # Number of times complete TLB was flushed
system.cpu.dtb.flush_tlb_asid                       0                       # Number of times TLB was flushed by ASID
system.cpu.dtb.flush_tlb_mva                        0                       # Number of times TLB was flushed by MVA
system.cpu.dtb.flush_tlb_mva_asid                   0                       # Number of times TLB was flushed by MVA & ASID
system.cpu.dtb.hits                                 0                       # DTB hits
system.cpu.dtb.inst_accesses                        0                       # ITB inst accesses
system.cpu.dtb.inst_hits                            0                       # ITB inst hits
system.cpu.dtb.inst_misses                          0                       # ITB inst misses
system.cpu.dtb.misses                               0                       # DTB misses
system.cpu.dtb.perms_faults                         0                       # Number of TLB faults due to permissions restrictions
system.cpu.dtb.prefetch_faults                      0                       # Number of TLB faults due to prefetch
system.cpu.dtb.read_accesses                        0                       # DTB read accesses
system.cpu.dtb.read_hits                            0                       # DTB read hits
system.cpu.dtb.read_misses                          0                       # DTB read misses
system.cpu.dtb.stage2_mmu.stage2_tlb.accesses            0                       # DTB accesses
system.cpu.dtb.stage2_mmu.stage2_tlb.align_faults            0                       # Number of TLB faults due to alignment restrictions
system.cpu.dtb.stage2_mmu.stage2_tlb.domain_faults            0                       # Number of TLB faults due to domain restrictions
system.cpu.dtb.stage2_mmu.stage2_tlb.flush_entries            0                       # Number of entries that have been flushed from TLB
system.cpu.dtb.stage2_mmu.stage2_tlb.flush_tlb            0                       # Number of times complete TLB was flushed
system.cpu.dtb.stage2_mmu.stage2_tlb.flush_tlb_asid            0                       # Number of times TLB was flushed by ASID
system.cpu.dtb.stage2_mmu.stage2_tlb.flush_tlb_mva            0                       # Number of times TLB was flushed by MVA
system.cpu.dtb.stage2_mmu.stage2_tlb.flush_tlb_mva_asid            0                       # Number of times TLB was flushed by MVA & ASID
system.cpu.dtb.stage2_mmu.stage2_tlb.hits            0                       # DTB hits
system.cpu.dtb.stage2_mmu.stage2_tlb.inst_accesses            0                       # ITB inst accesses
system.cpu.dtb.stage2_mmu.stage2_tlb.inst_hits            0                       # ITB inst hits
system.cpu.dtb.stage2_mmu.stage2_tlb.inst_misses            0                       # ITB inst misses
system.cpu.dtb.stage2_mmu.stage2_tlb.misses            0                       # DTB misses
system.cpu.dtb.stage2_mmu.stage2_tlb.perms_faults            0                       # Number of TLB faults due to permissions restrictions
system.cpu.dtb.stage2_mmu.stage2_tlb.prefetch_faults            0                       # Number of TLB faults due to prefetch
system.cpu.dtb.stage2_mmu.stage2_tlb.read_accesses            0                       # DTB read accesses
system.cpu.dtb.stage2_mmu.stage2_tlb.read_hits            0                       # DTB read hits
system.cpu.dtb.stage2_mmu.stage2_tlb.read_misses            0                       # DTB read misses
system.cpu.dtb.stage2_mmu.stage2_tlb.walker.walkRequestOrigin_Requested::Data            0                       # Table walker requests started/completed, data/inst
system.cpu.dtb.stage2_mmu.stage2_tlb.walker.walkRequestOrigin_Requested::Inst            0                       # Table walker requests started/completed, data/inst
system.cpu.dtb.stage2_mmu.stage2_tlb.walker.walkRequestOrigin_Requested::total            0                       # Table walker requests started/completed, data/inst
system.cpu.dtb.stage2_mmu.stage2_tlb.walker.walkRequestOrigin_Completed::Data            0                       # Table walker requests started/completed, data/inst
system.cpu.dtb.stage2_mmu.stage2_tlb.walker.walkRequestOrigin_Completed::Inst            0                       # Table walker requests started/completed, data/inst
system.cpu.dtb.stage2_mmu.stage2_tlb.walker.walkRequestOrigin_Completed::total            0                       # Table walker requests started/completed, data/inst
system.cpu.dtb.stage2_mmu.stage2_tlb.walker.walkRequestOrigin::total            0                       # Table walker requests started/completed, data/inst
system.cpu.dtb.stage2_mmu.stage2_tlb.walker.walks            0                       # Table walker walks requested
system.cpu.dtb.stage2_mmu.stage2_tlb.write_accesses            0                       # DTB write accesses
system.cpu.dtb.stage2_mmu.stage2_tlb.write_hits            0                       # DTB write hits
system.cpu.dtb.stage2_mmu.stage2_tlb.write_misses            0                       # DTB write misses
system.cpu.dtb.walker.walkRequestOrigin_Requested::Data            0                       # Table walker requests started/completed, data/inst
system.cpu.dtb.walker.walkRequestOrigin_Requested::Inst            0                       # Table walker requests started/completed, data/inst
system.cpu.dtb.walker.walkRequestOrigin_Requested::total            0                       # Table walker requests started/completed, data/inst
system.cpu.dtb.walker.walkRequestOrigin_Completed::Data            0                       # Table walker requests started/completed, data/inst
system.cpu.dtb.walker.walkRequestOrigin_Completed::Inst            0                       # Table walker requests started/completed, data/inst
system.cpu.dtb.walker.walkRequestOrigin_Completed::total            0                       # Table walker requests started/completed, data/inst
system.cpu.dtb.walker.walkRequestOrigin::total            0                       # Table walker requests started/completed, data/inst
system.cpu.dtb.walker.walks                         0                       # Table walker walks requested
system.cpu.dtb.write_accesses                       0                       # DTB write accesses
system.cpu.dtb.write_hits                           0                       # DTB write hits
system.cpu.dtb.write_misses                         0                       # DTB write misses
system.cpu.fetch2.amo_instructions                  0                       # Number of memory atomic instructions successfully decoded
system.cpu.fetch2.fp_instructions                   0                       # Number of floating point instructions successfully decoded
system.cpu.fetch2.int_instructions              24522                       # Number of integer instructions successfully decoded
system.cpu.fetch2.load_instructions              5763                       # Number of memory load instructions successfully decoded
system.cpu.fetch2.store_instructions             3423                       # Number of memory store instructions successfully decoded
system.cpu.fetch2.vec_instructions                  0                       # Number of SIMD instructions successfully decoded
system.cpu.idleCycles                           47074                       # Total number of cycles that the object has spent stopped
system.cpu.ipc                               0.355492                       # IPC: instructions per cycle
system.cpu.itb.accesses                             0                       # DTB accesses
system.cpu.itb.align_faults                         0                       # Number of TLB faults due to alignment restrictions
system.cpu.itb.domain_faults                        0                       # Number of TLB faults due to domain restrictions
system.cpu.itb.flush_entries                        0                       # Number of entries that have been flushed from TLB
system.cpu.itb.flush_tlb                            0                       # Number of times complete TLB was flushed
system.cpu.itb.flush_tlb_asid                       0                       # Number of times TLB was flushed by ASID
system.cpu.itb.flush_tlb_mva                        0                       # Number of times TLB was flushed by MVA
system.cpu.itb.flush_tlb_mva_asid                   0                       # Number of times TLB was flushed by MVA & ASID
system.cpu.itb.hits                                 0                       # DTB hits
system.cpu.itb.inst_accesses                        0                       # ITB inst accesses
system.cpu.itb.inst_hits                            0                       # ITB inst hits
system.cpu.itb.inst_misses                          0                       # ITB inst misses
system.cpu.itb.misses                               0                       # DTB misses
system.cpu.itb.perms_faults                         0                       # Number of TLB faults due to permissions restrictions
system.cpu.itb.prefetch_faults                      0                       # Number of TLB faults due to prefetch
system.cpu.itb.read_accesses                        0                       # DTB read accesses
system.cpu.itb.read_hits                            0                       # DTB read hits
system.cpu.itb.read_misses                          0                       # DTB read misses
system.cpu.itb.stage2_mmu.stage2_tlb.accesses            0                       # DTB accesses
system.cpu.itb.stage2_mmu.stage2_tlb.align_faults            0                       # Number of TLB faults due to alignment restrictions
system.cpu.itb.stage2_mmu.stage2_tlb.domain_faults            0                       # Number of TLB faults due to domain restrictions
system.cpu.itb.stage2_mmu.stage2_tlb.flush_entries            0                       # Number of entries that have been flushed from TLB
system.cpu.itb.stage2_mmu.stage2_tlb.flush_tlb            0                       # Number of times complete TLB was flushed
system.cpu.itb.stage2_mmu.stage2_tlb.flush_tlb_asid            0                       # Number of times TLB was flushed by ASID
system.cpu.itb.stage2_mmu.stage2_tlb.flush_tlb_mva            0                       # Number of times TLB was flushed by MVA
system.cpu.itb.stage2_mmu.stage2_tlb.flush_tlb_mva_asid            0                       # Number of times TLB was flushed by MVA & ASID
system.cpu.itb.stage2_mmu.stage2_tlb.hits            0                       # DTB hits
system.cpu.itb.stage2_mmu.stage2_tlb.inst_accesses            0                       # ITB inst accesses
system.cpu.itb.stage2_mmu.stage2_tlb.inst_hits            0                       # ITB inst hits
system.cpu.itb.stage2_mmu.stage2_tlb.inst_misses            0                       # ITB inst misses
system.cpu.itb.stage2_mmu.stage2_tlb.misses            0                       # DTB misses
system.cpu.itb.stage2_mmu.stage2_tlb.perms_faults            0                       # Number of TLB faults due to permissions restrictions
system.cpu.itb.stage2_mmu.stage2_tlb.prefetch_faults            0                       # Number of TLB faults due to prefetch
system.cpu.itb.stage2_mmu.stage2_tlb.read_accesses            0                       # DTB read accesses
system.cpu.itb.stage2_mmu.stage2_tlb.read_hits            0                       # DTB read hits
system.cpu.itb.stage2_mmu.stage2_tlb.read_misses            0                       # DTB read misses
system.cpu.itb.stage2_mmu.stage2_tlb.walker.walkRequestOrigin_Requested::Data            0                       # Table walker requests started/completed, data/inst
system.cpu.itb.stage2_mmu.stage2_tlb.walker.walkRequestOrigin_Requested::Inst            0                       # Table walker requests started/completed, data/inst
system.cpu.itb.stage2_mmu.stage2_tlb.walker.walkRequestOrigin_Requested::total            0                       # Table walker requests started/completed, data/inst
system.cpu.itb.stage2_mmu.stage2_tlb.walker.walkRequestOrigin_Completed::Data            0                       # Table walker requests started/completed, data/inst
system.cpu.itb.stage2_mmu.stage2_tlb.walker.walkRequestOrigin_Completed::Inst            0                       # Table walker requests started/completed, data/inst
system.cpu.itb.stage2_mmu.stage2_tlb.walker.walkRequestOrigin_Completed::total            0                       # Table walker requests started/completed, data/inst
system.cpu.itb.stage2_mmu.stage2_tlb.walker.walkRequestOrigin::total            0                       # Table walker requests started/completed, data/inst
system.cpu.itb.stage2_mmu.stage2_tlb.walker.walks            0                       # Table walker walks requested
system.cpu.itb.stage2_mmu.stage2_tlb.write_accesses            0                       # DTB write accesses
system.cpu.itb.stage2_mmu.stage2_tlb.write_hits            0                       # DTB write hits
system.cpu.itb.stage2_mmu.stage2_tlb.write_misses            0                       # DTB write misses
system.cpu.itb.walker.walkRequestOrigin_Requested::Data            0                       # Table walker requests started/completed, data/inst
system.cpu.itb.walker.walkRequestOrigin_Requested::Inst            0                       # Table walker requests started/completed, data/inst
system.cpu.itb.walker.walkRequestOrigin_Requested::total            0                       # Table walker requests started/completed, data/inst
system.cpu.itb.walker.walkRequestOrigin_Completed::Data            0                       # Table walker requests started/completed, data/inst
system.cpu.itb.walker.walkRequestOrigin_Completed::Inst            0                       # Table walker requests started/completed, data/inst
system.cpu.itb.walker.walkRequestOrigin_Completed::total            0                       # Table walker requests started/completed, data/inst
system.cpu.itb.walker.walkRequestOrigin::total            0                       # Table walker requests started/completed, data/inst
system.cpu.itb.walker.walks                         0                       # Table walker walks requested
system.cpu.itb.write_accesses                       0                       # DTB write accesses
system.cpu.itb.write_hits                           0                       # DTB write hits
system.cpu.itb.write_misses                         0                       # DTB write misses
system.cpu.numCycles                            97223                       # number of cpu cycles simulated
system.cpu.numFetchSuspends                         0                       # Number of times Execute suspended instruction fetching
system.cpu.numWorkItemsCompleted                    0                       # number of work items this cpu completed
system.cpu.numWorkItemsStarted                      0                       # number of work items this cpu started
system.cpu.op_class_0::No_OpClass                   0      0.00%      0.00% # Class of committed instruction
system.cpu.op_class_0::IntAlu                   27213     67.70%     67.70% # Class of committed instruction
system.cpu.op_class_0::IntMult                    385      0.96%     68.66% # Class of committed instruction
system.cpu.op_class_0::IntDiv                       0      0.00%     68.66% # Class of committed instruction
system.cpu.op_class_0::FloatAdd                     0      0.00%     68.66% # Class of committed instruction
system.cpu.op_class_0::FloatCmp                     0      0.00%     68.66% # Class of committed instruction
system.cpu.op_class_0::FloatCvt                     0      0.00%     68.66% # Class of committed instruction
system.cpu.op_class_0::FloatMult                    0      0.00%     68.66% # Class of committed instruction
system.cpu.op_class_0::FloatMultAcc                 0      0.00%     68.66% # Class of committed instruction
system.cpu.op_class_0::FloatDiv                     0      0.00%     68.66% # Class of committed instruction
system.cpu.op_class_0::FloatMisc                    0      0.00%     68.66% # Class of committed instruction
system.cpu.op_class_0::FloatSqrt                    0      0.00%     68.66% # Class of committed instruction
system.cpu.op_class_0::SimdAdd                      0      0.00%     68.66% # Class of committed instruction
system.cpu.op_class_0::SimdAddAcc                   0      0.00%     68.66% # Class of committed instruction
system.cpu.op_class_0::SimdAlu                      0      0.00%     68.66% # Class of committed instruction
system.cpu.op_class_0::SimdCmp                      0      0.00%     68.66% # Class of committed instruction
system.cpu.op_class_0::SimdCvt                      0      0.00%     68.66% # Class of committed instruction
system.cpu.op_class_0::SimdMisc                     0      0.00%     68.66% # Class of committed instruction
system.cpu.op_class_0::SimdMult                     0      0.00%     68.66% # Class of committed instruction
system.cpu.op_class_0::SimdMultAcc                  0      0.00%     68.66% # Class of committed instruction
system.cpu.op_class_0::SimdShift                    0      0.00%     68.66% # Class of committed instruction
system.cpu.op_class_0::SimdShiftAcc                 0      0.00%     68.66% # Class of committed instruction
system.cpu.op_class_0::SimdDiv                      0      0.00%     68.66% # Class of committed instruction
system.cpu.op_class_0::SimdSqrt                     0      0.00%     68.66% # Class of committed instruction
system.cpu.op_class_0::SimdFloatAdd                 0      0.00%     68.66% # Class of committed instruction
system.cpu.op_class_0::SimdFloatAlu                 0      0.00%     68.66% # Class of committed instruction
system.cpu.op_class_0::SimdFloatCmp                 0      0.00%     68.66% # Class of committed instruction
system.cpu.op_class_0::SimdFloatCvt                 0      0.00%     68.66% # Class of committed instruction
system.cpu.op_class_0::SimdFloatDiv                 0      0.00%     68.66% # Class of committed instruction
system.cpu.op_class_0::SimdFloatMisc               21      0.05%     68.71% # Class of committed instruction
system.cpu.op_class_0::SimdFloatMult                0      0.00%     68.71% # Class of committed instruction
system.cpu.op_class_0::SimdFloatMultAcc             0      0.00%     68.71% # Class of committed instruction
system.cpu.op_class_0::SimdFloatSqrt                0      0.00%     68.71% # Class of committed instruction
system.cpu.op_class_0::SimdReduceAdd                0      0.00%     68.71% # Class of committed instruction
system.cpu.op_class_0::SimdReduceAlu                0      0.00%     68.71% # Class of committed instruction
system.cpu.op_class_0::SimdReduceCmp                0      0.00%     68.71% # Class of committed instruction
system.cpu.op_class_0::SimdFloatReduceAdd            0      0.00%     68.71% # Class of committed instruction
system.cpu.op_class_0::SimdFloatReduceCmp            0      0.00%     68.71% # Class of committed instruction
system.cpu.op_class_0::SimdAes                      0      0.00%     68.71% # Class of committed instruction
system.cpu.op_class_0::SimdAesMix                   0      0.00%     68.71% # Class of committed instruction
system.cpu.op_class_0::SimdSha1Hash                 0      0.00%     68.71% # Class of committed instruction
system.cpu.op_class_0::SimdSha1Hash2                0      0.00%     68.71% # Class of committed instruction
system.cpu.op_class_0::SimdSha256Hash               0      0.00%     68.71% # Class of committed instruction
system.cpu.op_class_0::SimdSha256Hash2              0      0.00%     68.71% # Class of committed instruction
system.cpu.op_class_0::SimdShaSigma2                0      0.00%     68.71% # Class of committed instruction
system.cpu.op_class_0::SimdShaSigma3                0      0.00%     68.71% # Class of committed instruction
system.cpu.op_class_0::SimdPredAlu                  0      0.00%     68.71% # Class of committed instruction
system.cpu.op_class_0::MemRead                   6582     16.37%     85.09% # Class of committed instruction
system.cpu.op_class_0::MemWrite                  5995     14.91%    100.00% # Class of committed instruction
system.cpu.op_class_0::FloatMemRead                 0      0.00%    100.00% # Class of committed instruction
system.cpu.op_class_0::FloatMemWrite                0      0.00%    100.00% # Class of committed instruction
system.cpu.op_class_0::IprAccess                    0      0.00%    100.00% # Class of committed instruction
system.cpu.op_class_0::InstPrefetch                 0      0.00%    100.00% # Class of committed instruction
system.cpu.op_class_0::total                    40196                       # Class of committed instruction
system.cpu.tickCycles                           50149                       # Number of cycles that the object actually ticked
system.cpu.workload.numSyscalls                    10                       # Number of system calls
system.membus.snoop_filter.hit_multi_requests            4                       # Number of requests hitting in the snoop filter with multiple (>1) holders of the requested data.
system.membus.snoop_filter.hit_multi_snoops            0                       # Number of snoops hitting in the snoop filter with multiple (>1) holders of the requested data.
system.membus.snoop_filter.hit_single_requests          321                       # Number of requests hitting in the snoop filter with a single holder of the requested data.
system.membus.snoop_filter.hit_single_snoops            0                       # Number of snoops hitting in the snoop filter with a single holder of the requested data.
system.membus.snoop_filter.tot_requests          1098                       # Total number of requests made to the snoop filter.
system.membus.snoop_filter.tot_snoops               0                       # Total number of snoops made to the snoop filter.
system.membus.pwrStateResidencyTicks::UNDEFINED     48611500                       # Cumulative time (in ticks) in various power states
system.membus.trans_dist::ReadResp                727                       # Transaction distribution
system.membus.trans_dist::WritebackClean          297                       # Transaction distribution
system.membus.trans_dist::CleanEvict                1                       # Transaction distribution
system.membus.trans_dist::ReadExReq                73                       # Transaction distribution
system.membus.trans_dist::ReadExResp               73                       # Transaction distribution
system.membus.trans_dist::ReadCleanReq            616                       # Transaction distribution
system.membus.trans_dist::ReadSharedReq           111                       # Transaction distribution
system.membus.pkt_count_system.cpu.icache.mem_side::system.mem_ctrls.port         1529                       # Packet count per connected master and slave (bytes)
system.membus.pkt_count_system.cpu.dcache.mem_side::system.mem_ctrls.port          369                       # Packet count per connected master and slave (bytes)
system.membus.pkt_count::total                   1898                       # Packet count per connected master and slave (bytes)
system.membus.pkt_size_system.cpu.icache.mem_side::system.mem_ctrls.port        58432                       # Cumulative packet size per connected master and slave (bytes)
system.membus.pkt_size_system.cpu.dcache.mem_side::system.mem_ctrls.port        11776                       # Cumulative packet size per connected master and slave (bytes)
system.membus.pkt_size::total                   70208                       # Cumulative packet size per connected master and slave (bytes)
system.membus.snoops                                0                       # Total snoops (count)
system.membus.snoopTraffic                          0                       # Total snoop traffic (bytes)
system.membus.snoop_fanout::samples               800                       # Request fanout histogram
system.membus.snoop_fanout::mean             0.033750                       # Request fanout histogram
system.membus.snoop_fanout::stdev            0.180698                       # Request fanout histogram
system.membus.snoop_fanout::underflows              0      0.00%      0.00% # Request fanout histogram
system.membus.snoop_fanout::0                     773     96.62%     96.62% # Request fanout histogram
system.membus.snoop_fanout::1                      27      3.38%    100.00% # Request fanout histogram
system.membus.snoop_fanout::2                       0      0.00%    100.00% # Request fanout histogram
system.membus.snoop_fanout::overflows               0      0.00%    100.00% # Request fanout histogram
system.membus.snoop_fanout::min_value               0                       # Request fanout histogram
system.membus.snoop_fanout::max_value               1                       # Request fanout histogram
system.membus.snoop_fanout::total                 800                       # Request fanout histogram
system.membus.reqLayer0.occupancy              496900                       # Layer occupancy (ticks)
system.membus.reqLayer0.utilization               1.0                       # Layer utilization (%)
system.membus.respLayer1.occupancy             641050                       # Layer occupancy (ticks)
system.membus.respLayer1.utilization              1.3                       # Layer utilization (%)
system.membus.respLayer2.occupancy             198950                       # Layer occupancy (ticks)
system.membus.respLayer2.utilization              0.4                       # Layer utilization (%)
system.voltage_domain.voltage                       1                       # Voltage in Volts
system.clk_domain.clock                           200                       # Clock period in ticks
system.cpu_voltage_domain.voltage                   1                       # Voltage in Volts
system.mem_ctrls.pwrStateResidencyTicks::UNDEFINED     48611500                       # Cumulative time (in ticks) in various power states
system.mem_ctrls.bytes_read::.cpu.inst          39424                       # Number of bytes read from this memory
system.mem_ctrls.bytes_read::.cpu.data          11776                       # Number of bytes read from this memory
system.mem_ctrls.bytes_read::total              51200                       # Number of bytes read from this memory
system.mem_ctrls.bytes_inst_read::.cpu.inst        39424                       # Number of instructions bytes read from this memory
system.mem_ctrls.bytes_inst_read::total         39424                       # Number of instructions bytes read from this memory
system.mem_ctrls.num_reads::.cpu.inst             616                       # Number of read requests responded to by this memory
system.mem_ctrls.num_reads::.cpu.data             184                       # Number of read requests responded to by this memory
system.mem_ctrls.num_reads::total                 800                       # Number of read requests responded to by this memory
system.mem_ctrls.bw_read::.cpu.inst         811001512                       # Total read bandwidth from this memory (bytes/s)
system.mem_ctrls.bw_read::.cpu.data         242247205                       # Total read bandwidth from this memory (bytes/s)
system.mem_ctrls.bw_read::total            1053248717                       # Total read bandwidth from this memory (bytes/s)
system.mem_ctrls.bw_inst_read::.cpu.inst    811001512                       # Instruction read bandwidth from this memory (bytes/s)
system.mem_ctrls.bw_inst_read::total        811001512                       # Instruction read bandwidth from this memory (bytes/s)
system.mem_ctrls.bw_total::.cpu.inst        811001512                       # Total bandwidth to/from this memory (bytes/s)
system.mem_ctrls.bw_total::.cpu.data        242247205                       # Total bandwidth to/from this memory (bytes/s)
system.mem_ctrls.bw_total::total           1053248717                       # Total bandwidth to/from this memory (bytes/s)
system.mem_ctrls.avgPriority_.writebacks::samples        94.00                       # Average QoS priority value for accepted requests
system.mem_ctrls.avgPriority_.cpu.inst::samples       400.00                       # Average QoS priority value for accepted requests
system.mem_ctrls.avgPriority_.cpu.data::samples       184.00                       # Average QoS priority value for accepted requests
system.mem_ctrls.priorityMinLatency      0.000000018750                       # per QoS priority minimum request to response latency (s)
system.mem_ctrls.priorityMaxLatency      0.000051547750                       # per QoS priority maximum request to response latency (s)
system.mem_ctrls.numReadWriteTurnArounds            4                       # Number of turnarounds from READ to WRITE
system.mem_ctrls.numWriteReadTurnArounds            4                       # Number of turnarounds from WRITE to READ
system.mem_ctrls.numStayReadState                1461                       # Number of times bus staying in READ state
system.mem_ctrls.numStayWriteState                 62                       # Number of times bus staying in WRITE state
system.mem_ctrls.readReqs                         800                       # Number of read requests accepted
system.mem_ctrls.writeReqs                        293                       # Number of write requests accepted
system.mem_ctrls.readBursts                       800                       # Number of DRAM read bursts, including those serviced by the write queue
system.mem_ctrls.writeBursts                      293                       # Number of DRAM write bursts, including those merged in the write queue
system.mem_ctrls.servicedByWrQ                    216                       # Number of DRAM read bursts serviced by the write queue
system.mem_ctrls.mergedWrBursts                   199                       # Number of DRAM write bursts merged with an existing one
system.mem_ctrls.neitherReadNorWriteReqs            0                       # Number of requests that are neither read nor write
system.mem_ctrls.perBankRdBursts::0                59                       # Per bank write bursts
system.mem_ctrls.perBankRdBursts::1                 2                       # Per bank write bursts
system.mem_ctrls.perBankRdBursts::2                23                       # Per bank write bursts
system.mem_ctrls.perBankRdBursts::3                48                       # Per bank write bursts
system.mem_ctrls.perBankRdBursts::4                13                       # Per bank write bursts
system.mem_ctrls.perBankRdBursts::5                37                       # Per bank write bursts
system.mem_ctrls.perBankRdBursts::6                43                       # Per bank write bursts
system.mem_ctrls.perBankRdBursts::7                52                       # Per bank write bursts
system.mem_ctrls.perBankRdBursts::8               113                       # Per bank write bursts
system.mem_ctrls.perBankRdBursts::9                72                       # Per bank write bursts
system.mem_ctrls.perBankRdBursts::10               27                       # Per bank write bursts
system.mem_ctrls.perBankRdBursts::11               72                       # Per bank write bursts
system.mem_ctrls.perBankRdBursts::12               11                       # Per bank write bursts
system.mem_ctrls.perBankRdBursts::13                7                       # Per bank write bursts
system.mem_ctrls.perBankRdBursts::14                5                       # Per bank write bursts
system.mem_ctrls.perBankRdBursts::15                0                       # Per bank write bursts
system.mem_ctrls.perBankWrBursts::0                13                       # Per bank write bursts
system.mem_ctrls.perBankWrBursts::1                 0                       # Per bank write bursts
system.mem_ctrls.perBankWrBursts::2                 2                       # Per bank write bursts
system.mem_ctrls.perBankWrBursts::3                 3                       # Per bank write bursts
system.mem_ctrls.perBankWrBursts::4                 0                       # Per bank write bursts
system.mem_ctrls.perBankWrBursts::5                 3                       # Per bank write bursts
system.mem_ctrls.perBankWrBursts::6                 3                       # Per bank write bursts
system.mem_ctrls.perBankWrBursts::7                11                       # Per bank write bursts
system.mem_ctrls.perBankWrBursts::8                12                       # Per bank write bursts
system.mem_ctrls.perBankWrBursts::9                 4                       # Per bank write bursts
system.mem_ctrls.perBankWrBursts::10                0                       # Per bank write bursts
system.mem_ctrls.perBankWrBursts::11               15                       # Per bank write bursts
system.mem_ctrls.perBankWrBursts::12                0                       # Per bank write bursts
system.mem_ctrls.perBankWrBursts::13                0                       # Per bank write bursts
system.mem_ctrls.perBankWrBursts::14                0                       # Per bank write bursts
system.mem_ctrls.perBankWrBursts::15                0                       # Per bank write bursts
system.mem_ctrls.avgRdQLen                       1.12                       # Average read queue length when enqueuing
system.mem_ctrls.avgWrQLen                      15.76                       # Average write queue length when enqueuing
system.mem_ctrls.totQLat                      4169400                       # Total ticks spent queuing
system.mem_ctrls.totBusLat                    2920000                       # Total ticks spent in databus transfers
system.mem_ctrls.totMemAccLat                15119400                       # Total ticks spent from burst creation until serviced by the DRAM
system.mem_ctrls.avgQLat                      7139.38                       # Average queueing delay per DRAM burst
system.mem_ctrls.avgBusLat                    5000.00                       # Average bus latency per DRAM burst
system.mem_ctrls.avgMemAccLat                25889.38                       # Average memory access latency per DRAM burst
system.mem_ctrls.numRdRetry                         0                       # Number of times read queue was full causing retry
system.mem_ctrls.numWrRetry                         0                       # Number of times write queue was full causing retry
system.mem_ctrls.readRowHits                      467                       # Number of row buffer hits during reads
system.mem_ctrls.writeRowHits                      53                       # Number of row buffer hits during writes
system.mem_ctrls.readRowHitRate                 79.97                       # Row buffer hit rate for reads
system.mem_ctrls.writeRowHitRate                56.38                       # Row buffer hit rate for writes
system.mem_ctrls.readPktSize::0                     0                       # Read request sizes (log2)
system.mem_ctrls.readPktSize::1                     0                       # Read request sizes (log2)
system.mem_ctrls.readPktSize::2                     0                       # Read request sizes (log2)
system.mem_ctrls.readPktSize::3                     0                       # Read request sizes (log2)
system.mem_ctrls.readPktSize::4                     0                       # Read request sizes (log2)
system.mem_ctrls.readPktSize::5                     0                       # Read request sizes (log2)
system.mem_ctrls.readPktSize::6                   800                       # Read request sizes (log2)
system.mem_ctrls.writePktSize::0                    0                       # Write request sizes (log2)
system.mem_ctrls.writePktSize::1                    0                       # Write request sizes (log2)
system.mem_ctrls.writePktSize::2                    0                       # Write request sizes (log2)
system.mem_ctrls.writePktSize::3                    0                       # Write request sizes (log2)
system.mem_ctrls.writePktSize::4                    0                       # Write request sizes (log2)
system.mem_ctrls.writePktSize::5                    0                       # Write request sizes (log2)
system.mem_ctrls.writePktSize::6                  293                       # Write request sizes (log2)
system.mem_ctrls.rdQLenPdf::0                     482                       # What read queue length does an incoming req see
system.mem_ctrls.rdQLenPdf::1                      98                       # What read queue length does an incoming req see
system.mem_ctrls.rdQLenPdf::2                       4                       # What read queue length does an incoming req see
system.mem_ctrls.rdQLenPdf::3                       0                       # What read queue length does an incoming req see
system.mem_ctrls.rdQLenPdf::4                       0                       # What read queue length does an incoming req see
system.mem_ctrls.rdQLenPdf::5                       0                       # What read queue length does an incoming req see
system.mem_ctrls.rdQLenPdf::6                       0                       # What read queue length does an incoming req see
system.mem_ctrls.rdQLenPdf::7                       0                       # What read queue length does an incoming req see
system.mem_ctrls.rdQLenPdf::8                       0                       # What read queue length does an incoming req see
system.mem_ctrls.rdQLenPdf::9                       0                       # What read queue length does an incoming req see
system.mem_ctrls.rdQLenPdf::10                      0                       # What read queue length does an incoming req see
system.mem_ctrls.rdQLenPdf::11                      0                       # What read queue length does an incoming req see
system.mem_ctrls.rdQLenPdf::12                      0                       # What read queue length does an incoming req see
system.mem_ctrls.rdQLenPdf::13                      0                       # What read queue length does an incoming req see
system.mem_ctrls.rdQLenPdf::14                      0                       # What read queue length does an incoming req see
system.mem_ctrls.rdQLenPdf::15                      0                       # What read queue length does an incoming req see
system.mem_ctrls.rdQLenPdf::16                      0                       # What read queue length does an incoming req see
system.mem_ctrls.rdQLenPdf::17                      0                       # What read queue length does an incoming req see
system.mem_ctrls.rdQLenPdf::18                      0                       # What read queue length does an incoming req see
system.mem_ctrls.rdQLenPdf::19                      0                       # What read queue length does an incoming req see
system.mem_ctrls.rdQLenPdf::20                      0                       # What read queue length does an incoming req see
system.mem_ctrls.rdQLenPdf::21                      0                       # What read queue length does an incoming req see
system.mem_ctrls.rdQLenPdf::22                      0                       # What read queue length does an incoming req see
system.mem_ctrls.rdQLenPdf::23                      0                       # What read queue length does an incoming req see
system.mem_ctrls.rdQLenPdf::24                      0                       # What read queue length does an incoming req see
system.mem_ctrls.rdQLenPdf::25                      0                       # What read queue length does an incoming req see
system.mem_ctrls.rdQLenPdf::26                      0                       # What read queue length does an incoming req see
system.mem_ctrls.rdQLenPdf::27                      0                       # What read queue length does an incoming req see
system.mem_ctrls.rdQLenPdf::28                      0                       # What read queue length does an incoming req see
system.mem_ctrls.rdQLenPdf::29                      0                       # What read queue length does an incoming req see
system.mem_ctrls.rdQLenPdf::30                      0                       # What read queue length does an incoming req see
system.mem_ctrls.rdQLenPdf::31                      0                       # What read queue length does an incoming req see
system.mem_ctrls.wrQLenPdf::0                       1                       # What write queue length does an incoming req see
system.mem_ctrls.wrQLenPdf::1                       1                       # What write queue length does an incoming req see
system.mem_ctrls.wrQLenPdf::2                       1                       # What write queue length does an incoming req see
system.mem_ctrls.wrQLenPdf::3                       1                       # What write queue length does an incoming req see
system.mem_ctrls.wrQLenPdf::4                       1                       # What write queue length does an incoming req see
system.mem_ctrls.wrQLenPdf::5                       1                       # What write queue length does an incoming req see
system.mem_ctrls.wrQLenPdf::6                       1                       # What write queue length does an incoming req see
system.mem_ctrls.wrQLenPdf::7                       1                       # What write queue length does an incoming req see
system.mem_ctrls.wrQLenPdf::8                       1                       # What write queue length does an incoming req see
system.mem_ctrls.wrQLenPdf::9                       1                       # What write queue length does an incoming req see
system.mem_ctrls.wrQLenPdf::10                      1                       # What write queue length does an incoming req see
system.mem_ctrls.wrQLenPdf::11                      1                       # What write queue length does an incoming req see
system.mem_ctrls.wrQLenPdf::12                      1                       # What write queue length does an incoming req see
system.mem_ctrls.wrQLenPdf::13                      1                       # What write queue length does an incoming req see
system.mem_ctrls.wrQLenPdf::14                      1                       # What write queue length does an incoming req see
system.mem_ctrls.wrQLenPdf::15                      2                       # What write queue length does an incoming req see
system.mem_ctrls.wrQLenPdf::16                      2                       # What write queue length does an incoming req see
system.mem_ctrls.wrQLenPdf::17                      5                       # What write queue length does an incoming req see
system.mem_ctrls.wrQLenPdf::18                      5                       # What write queue length does an incoming req see
system.mem_ctrls.wrQLenPdf::19                      5                       # What write queue length does an incoming req see
system.mem_ctrls.wrQLenPdf::20                      5                       # What write queue length does an incoming req see
system.mem_ctrls.wrQLenPdf::21                      5                       # What write queue length does an incoming req see
system.mem_ctrls.wrQLenPdf::22                      5                       # What write queue length does an incoming req see
system.mem_ctrls.wrQLenPdf::23                      5                       # What write queue length does an incoming req see
system.mem_ctrls.wrQLenPdf::24                      5                       # What write queue length does an incoming req see
system.mem_ctrls.wrQLenPdf::25                      5                       # What write queue length does an incoming req see
system.mem_ctrls.wrQLenPdf::26                      5                       # What write queue length does an incoming req see
system.mem_ctrls.wrQLenPdf::27                      5                       # What write queue length does an incoming req see
system.mem_ctrls.wrQLenPdf::28                      4                       # What write queue length does an incoming req see
system.mem_ctrls.wrQLenPdf::29                      4                       # What write queue length does an incoming req see
system.mem_ctrls.wrQLenPdf::30                      4                       # What write queue length does an incoming req see
system.mem_ctrls.wrQLenPdf::31                      4                       # What write queue length does an incoming req see
system.mem_ctrls.wrQLenPdf::32                      4                       # What write queue length does an incoming req see
system.mem_ctrls.wrQLenPdf::33                      0                       # What write queue length does an incoming req see
system.mem_ctrls.wrQLenPdf::34                      0                       # What write queue length does an incoming req see
system.mem_ctrls.wrQLenPdf::35                      0                       # What write queue length does an incoming req see
system.mem_ctrls.wrQLenPdf::36                      0                       # What write queue length does an incoming req see
system.mem_ctrls.wrQLenPdf::37                      0                       # What write queue length does an incoming req see
system.mem_ctrls.wrQLenPdf::38                      0                       # What write queue length does an incoming req see
system.mem_ctrls.wrQLenPdf::39                      0                       # What write queue length does an incoming req see
system.mem_ctrls.wrQLenPdf::40                      0                       # What write queue length does an incoming req see
system.mem_ctrls.wrQLenPdf::41                      0                       # What write queue length does an incoming req see
system.mem_ctrls.wrQLenPdf::42                      0                       # What write queue length does an incoming req see
system.mem_ctrls.wrQLenPdf::43                      0                       # What write queue length does an incoming req see
system.mem_ctrls.wrQLenPdf::44                      0                       # What write queue length does an incoming req see
system.mem_ctrls.wrQLenPdf::45                      0                       # What write queue length does an incoming req see
system.mem_ctrls.wrQLenPdf::46                      0                       # What write queue length does an incoming req see
system.mem_ctrls.wrQLenPdf::47                      0                       # What write queue length does an incoming req see
system.mem_ctrls.wrQLenPdf::48                      0                       # What write queue length does an incoming req see
system.mem_ctrls.wrQLenPdf::49                      0                       # What write queue length does an incoming req see
system.mem_ctrls.wrQLenPdf::50                      0                       # What write queue length does an incoming req see
system.mem_ctrls.wrQLenPdf::51                      0                       # What write queue length does an incoming req see
system.mem_ctrls.wrQLenPdf::52                      0                       # What write queue length does an incoming req see
system.mem_ctrls.wrQLenPdf::53                      0                       # What write queue length does an incoming req see
system.mem_ctrls.wrQLenPdf::54                      0                       # What write queue length does an incoming req see
system.mem_ctrls.wrQLenPdf::55                      0                       # What write queue length does an incoming req see
system.mem_ctrls.wrQLenPdf::56                      0                       # What write queue length does an incoming req see
system.mem_ctrls.wrQLenPdf::57                      0                       # What write queue length does an incoming req see
system.mem_ctrls.wrQLenPdf::58                      0                       # What write queue length does an incoming req see
system.mem_ctrls.wrQLenPdf::59                      0                       # What write queue length does an incoming req see
system.mem_ctrls.wrQLenPdf::60                      0                       # What write queue length does an incoming req see
system.mem_ctrls.wrQLenPdf::61                      0                       # What write queue length does an incoming req see
system.mem_ctrls.wrQLenPdf::62                      0                       # What write queue length does an incoming req see
system.mem_ctrls.wrQLenPdf::63                      0                       # What write queue length does an incoming req see
system.mem_ctrls.bytesPerActivate::samples          124                       # Bytes accessed per row activation
system.mem_ctrls.bytesPerActivate::mean           320                       # Bytes accessed per row activation
system.mem_ctrls.bytesPerActivate::gmean   211.211546                       # Bytes accessed per row activation
system.mem_ctrls.bytesPerActivate::stdev   295.377944                       # Bytes accessed per row activation
system.mem_ctrls.bytesPerActivate::0-127           31     25.00%     25.00% # Bytes accessed per row activation
system.mem_ctrls.bytesPerActivate::128-255           34     27.42%     52.42% # Bytes accessed per row activation
system.mem_ctrls.bytesPerActivate::256-383           20     16.13%     68.55% # Bytes accessed per row activation
system.mem_ctrls.bytesPerActivate::384-511           13     10.48%     79.03% # Bytes accessed per row activation
system.mem_ctrls.bytesPerActivate::512-639            2      1.61%     80.65% # Bytes accessed per row activation
system.mem_ctrls.bytesPerActivate::640-767            9      7.26%     87.90% # Bytes accessed per row activation
system.mem_ctrls.bytesPerActivate::768-895            3      2.42%     90.32% # Bytes accessed per row activation
system.mem_ctrls.bytesPerActivate::896-1023            2      1.61%     91.94% # Bytes accessed per row activation
system.mem_ctrls.bytesPerActivate::1024-1151           10      8.06%    100.00% # Bytes accessed per row activation
system.mem_ctrls.bytesPerActivate::total          124                       # Bytes accessed per row activation
system.mem_ctrls.rdPerTurnAround::samples            4                       # Reads before turning the bus around for writes
system.mem_ctrls.rdPerTurnAround::mean            133                       # Reads before turning the bus around for writes
system.mem_ctrls.rdPerTurnAround::gmean     58.504208                       # Reads before turning the bus around for writes
system.mem_ctrls.rdPerTurnAround::stdev    205.400422                       # Reads before turning the bus around for writes
system.mem_ctrls.rdPerTurnAround::16-31             1     25.00%     25.00% # Reads before turning the bus around for writes
system.mem_ctrls.rdPerTurnAround::32-47             2     50.00%     75.00% # Reads before turning the bus around for writes
system.mem_ctrls.rdPerTurnAround::432-447            1     25.00%    100.00% # Reads before turning the bus around for writes
system.mem_ctrls.rdPerTurnAround::total             4                       # Reads before turning the bus around for writes
system.mem_ctrls.wrPerTurnAround::samples            4                       # Writes before turning the bus around for reads
system.mem_ctrls.wrPerTurnAround::mean      16.500000                       # Writes before turning the bus around for reads
system.mem_ctrls.wrPerTurnAround::gmean     16.478137                       # Writes before turning the bus around for reads
system.mem_ctrls.wrPerTurnAround::stdev             1                       # Writes before turning the bus around for reads
system.mem_ctrls.wrPerTurnAround::16                3     75.00%     75.00% # Writes before turning the bus around for reads
system.mem_ctrls.wrPerTurnAround::18                1     25.00%    100.00% # Writes before turning the bus around for reads
system.mem_ctrls.wrPerTurnAround::total             4                       # Writes before turning the bus around for reads
system.mem_ctrls.bytesReadDRAM                  37376                       # Total number of bytes read from DRAM
system.mem_ctrls.bytesReadWrQ                   13824                       # Total number of bytes read from write queue
system.mem_ctrls.bytesWritten                    4224                       # Total number of bytes written to DRAM
system.mem_ctrls.bytesReadSys                   51200                       # Total read bytes from the system interface side
system.mem_ctrls.bytesWrittenSys                18752                       # Total written bytes from the system interface side
system.mem_ctrls.avgRdBW                       768.87                       # Average DRAM read bandwidth in MiByte/s
system.mem_ctrls.avgWrBW                        86.89                       # Average achieved write bandwidth in MiByte/s
system.mem_ctrls.avgRdBWSys                   1053.25                       # Average system read bandwidth in MiByte/s
system.mem_ctrls.avgWrBWSys                    385.75                       # Average system write bandwidth in MiByte/s
system.mem_ctrls.peakBW                      12800.00                       # Theoretical peak bandwidth in MiByte/s
system.mem_ctrls.busUtil                         6.69                       # Data bus utilization in percentage
system.mem_ctrls.busUtilRead                     6.01                       # Data bus utilization in percentage for reads
system.mem_ctrls.busUtilWrite                    0.68                       # Data bus utilization in percentage for writes
system.mem_ctrls.totGap                      48561000                       # Total gap between requests
system.mem_ctrls.avgGap                      44429.09                       # Average gap between requests
system.mem_ctrls.masterReadBytes::.cpu.inst        25600                       # Per-master bytes read from memory
system.mem_ctrls.masterReadBytes::.cpu.data        11776                       # Per-master bytes read from memory
system.mem_ctrls.masterWriteBytes::.writebacks         4224                       # Per-master bytes write to memory
system.mem_ctrls.masterReadRate::.cpu.inst 526624358.433703958988                       # Per-master bytes read from memory rate (Bytes/sec)
system.mem_ctrls.masterReadRate::.cpu.data 242247204.879503816366                       # Per-master bytes read from memory rate (Bytes/sec)
system.mem_ctrls.masterWriteRate::.writebacks 86893019.141561150551                       # Per-master bytes write to memory rate (Bytes/sec)
system.mem_ctrls.masterReadAccesses::.cpu.inst          616                       # Per-master read serviced memory accesses
system.mem_ctrls.masterReadAccesses::.cpu.data          184                       # Per-master read serviced memory accesses
system.mem_ctrls.masterWriteAccesses::.writebacks          293                       # Per-master write serviced memory accesses
system.mem_ctrls.masterReadTotalLat::.cpu.inst      9803750                       # Per-master read total memory access latency
system.mem_ctrls.masterReadTotalLat::.cpu.data      5315650                       # Per-master read total memory access latency
system.mem_ctrls.masterWriteTotalLat::.writebacks    496995250                       # Per-master write total memory access latency
system.mem_ctrls.masterReadAvgLat::.cpu.inst     15915.18                       # Per-master read average memory access latency
system.mem_ctrls.masterReadAvgLat::.cpu.data     28889.40                       # Per-master read average memory access latency
system.mem_ctrls.masterWriteAvgLat::.writebacks   1696229.52                       # Per-master write average memory access latency
system.mem_ctrls.pageHitRate                    76.70                       # Row buffer hit rate, read and write combined
system.mem_ctrls.rank1.actEnergy               542640                       # Energy for activate commands per rank (pJ)
system.mem_ctrls.rank1.preEnergy               277035                       # Energy for precharge commands per rank (pJ)
system.mem_ctrls.rank1.readEnergy             2191980                       # Energy for read commands per rank (pJ)
system.mem_ctrls.rank1.writeEnergy             161820                       # Energy for write commands per rank (pJ)
system.mem_ctrls.rank1.refreshEnergy     3687840.000000                       # Energy for refresh commands per rank (pJ)
system.mem_ctrls.rank1.actBackEnergy         20653380                       # Energy for active background per rank (pJ)
system.mem_ctrls.rank1.preBackEnergy          1274880                       # Energy for precharge background per rank (pJ)
system.mem_ctrls.rank1.actPowerDownEnergy            0                       # Energy for active power-down per rank (pJ)
system.mem_ctrls.rank1.prePowerDownEnergy            0                       # Energy for precharge power-down per rank (pJ)
system.mem_ctrls.rank1.selfRefreshEnergy            0                       # Energy for self refresh per rank (pJ)
system.mem_ctrls.rank1.totalEnergy           28789575                       # Total energy per rank (pJ)
system.mem_ctrls.rank1.averagePower        592.237948                       # Core power per rank (mW)
system.mem_ctrls.rank1.totalIdleTime                0                       # Total Idle time Per DRAM Rank
system.mem_ctrls.rank1.memoryStateTime::IDLE      3152500                       # Time in different power states
system.mem_ctrls.rank1.memoryStateTime::REF      1560000                       # Time in different power states
system.mem_ctrls.rank1.memoryStateTime::SREF            0                       # Time in different power states
system.mem_ctrls.rank1.memoryStateTime::PRE_PDN            0                       # Time in different power states
system.mem_ctrls.rank1.memoryStateTime::ACT     43899000                       # Time in different power states
system.mem_ctrls.rank1.memoryStateTime::ACT_PDN            0                       # Time in different power states
system.mem_ctrls.rank0.actEnergy               385560                       # Energy for activate commands per rank (pJ)
system.mem_ctrls.rank0.preEnergy               193545                       # Energy for precharge commands per rank (pJ)
system.mem_ctrls.rank0.readEnergy             1977780                       # Energy for read commands per rank (pJ)
system.mem_ctrls.rank0.writeEnergy             182700                       # Energy for write commands per rank (pJ)
system.mem_ctrls.rank0.refreshEnergy     3687840.000000                       # Energy for refresh commands per rank (pJ)
system.mem_ctrls.rank0.actBackEnergy         15559290                       # Energy for active background per rank (pJ)
system.mem_ctrls.rank0.preBackEnergy          5564640                       # Energy for precharge background per rank (pJ)
system.mem_ctrls.rank0.actPowerDownEnergy            0                       # Energy for active power-down per rank (pJ)
system.mem_ctrls.rank0.prePowerDownEnergy            0                       # Energy for precharge power-down per rank (pJ)
system.mem_ctrls.rank0.selfRefreshEnergy            0                       # Energy for self refresh per rank (pJ)
system.mem_ctrls.rank0.totalEnergy           27551355                       # Total energy per rank (pJ)
system.mem_ctrls.rank0.averagePower        566.766197                       # Core power per rank (mW)
system.mem_ctrls.rank0.totalIdleTime                0                       # Total Idle time Per DRAM Rank
system.mem_ctrls.rank0.memoryStateTime::IDLE     14268750                       # Time in different power states
system.mem_ctrls.rank0.memoryStateTime::REF      1560000                       # Time in different power states
system.mem_ctrls.rank0.memoryStateTime::SREF            0                       # Time in different power states
system.mem_ctrls.rank0.memoryStateTime::PRE_PDN            0                       # Time in different power states
system.mem_ctrls.rank0.memoryStateTime::ACT     32782750                       # Time in different power states
system.mem_ctrls.rank0.memoryStateTime::ACT_PDN            0                       # Time in different power states
system.cpu_clk_domain.clock                       500                       # Clock period in ticks
system.cpu.pwrStateResidencyTicks::ON        48611500                       # Cumulative time (in ticks) in various power states
system.cpu.icache.pwrStateResidencyTicks::UNDEFINED     48611500                       # Cumulative time (in ticks) in various power states
system.cpu.icache.demand_hits::.cpu.inst        11482                       # number of demand (read+write) hits
system.cpu.icache.demand_hits::total            11482                       # number of demand (read+write) hits
system.cpu.icache.overall_hits::.cpu.inst        11482                       # number of overall hits
system.cpu.icache.overall_hits::total           11482                       # number of overall hits
system.cpu.icache.demand_misses::.cpu.inst          616                       # number of demand (read+write) misses
system.cpu.icache.demand_misses::total            616                       # number of demand (read+write) misses
system.cpu.icache.overall_misses::.cpu.inst          616                       # number of overall misses
system.cpu.icache.overall_misses::total           616                       # number of overall misses
system.cpu.icache.demand_miss_latency::.cpu.inst     22591000                       # number of demand (read+write) miss cycles
system.cpu.icache.demand_miss_latency::total     22591000                       # number of demand (read+write) miss cycles
system.cpu.icache.overall_miss_latency::.cpu.inst     22591000                       # number of overall miss cycles
system.cpu.icache.overall_miss_latency::total     22591000                       # number of overall miss cycles
system.cpu.icache.demand_accesses::.cpu.inst        12098                       # number of demand (read+write) accesses
system.cpu.icache.demand_accesses::total        12098                       # number of demand (read+write) accesses
system.cpu.icache.overall_accesses::.cpu.inst        12098                       # number of overall (read+write) accesses
system.cpu.icache.overall_accesses::total        12098                       # number of overall (read+write) accesses
system.cpu.icache.demand_miss_rate::.cpu.inst     0.050918                       # miss rate for demand accesses
system.cpu.icache.demand_miss_rate::total     0.050918                       # miss rate for demand accesses
system.cpu.icache.overall_miss_rate::.cpu.inst     0.050918                       # miss rate for overall accesses
system.cpu.icache.overall_miss_rate::total     0.050918                       # miss rate for overall accesses
system.cpu.icache.demand_avg_miss_latency::.cpu.inst 36673.701299                       # average overall miss latency
system.cpu.icache.demand_avg_miss_latency::total 36673.701299                       # average overall miss latency
system.cpu.icache.overall_avg_miss_latency::.cpu.inst 36673.701299                       # average overall miss latency
system.cpu.icache.overall_avg_miss_latency::total 36673.701299                       # average overall miss latency
system.cpu.icache.blocked_cycles::no_mshrs            0                       # number of cycles access was blocked
system.cpu.icache.blocked_cycles::no_targets            0                       # number of cycles access was blocked
system.cpu.icache.blocked::no_mshrs                 0                       # number of cycles access was blocked
system.cpu.icache.blocked::no_targets               0                       # number of cycles access was blocked
system.cpu.icache.avg_blocked_cycles::no_mshrs          nan                       # average number of cycles each access was blocked
system.cpu.icache.avg_blocked_cycles::no_targets          nan                       # average number of cycles each access was blocked
system.cpu.icache.writebacks::.writebacks          297                       # number of writebacks
system.cpu.icache.writebacks::total               297                       # number of writebacks
system.cpu.icache.demand_mshr_misses::.cpu.inst          616                       # number of demand (read+write) MSHR misses
system.cpu.icache.demand_mshr_misses::total          616                       # number of demand (read+write) MSHR misses
system.cpu.icache.overall_mshr_misses::.cpu.inst          616                       # number of overall MSHR misses
system.cpu.icache.overall_mshr_misses::total          616                       # number of overall MSHR misses
system.cpu.icache.demand_mshr_miss_latency::.cpu.inst     21875700                       # number of demand (read+write) MSHR miss cycles
system.cpu.icache.demand_mshr_miss_latency::total     21875700                       # number of demand (read+write) MSHR miss cycles
system.cpu.icache.overall_mshr_miss_latency::.cpu.inst     21875700                       # number of overall MSHR miss cycles
system.cpu.icache.overall_mshr_miss_latency::total     21875700                       # number of overall MSHR miss cycles
system.cpu.icache.demand_mshr_miss_rate::.cpu.inst     0.050918                       # mshr miss rate for demand accesses
system.cpu.icache.demand_mshr_miss_rate::total     0.050918                       # mshr miss rate for demand accesses
system.cpu.icache.overall_mshr_miss_rate::.cpu.inst     0.050918                       # mshr miss rate for overall accesses
system.cpu.icache.overall_mshr_miss_rate::total     0.050918                       # mshr miss rate for overall accesses
system.cpu.icache.demand_avg_mshr_miss_latency::.cpu.inst 35512.500000                       # average overall mshr miss latency
system.cpu.icache.demand_avg_mshr_miss_latency::total 35512.500000                       # average overall mshr miss latency
system.cpu.icache.overall_avg_mshr_miss_latency::.cpu.inst 35512.500000                       # average overall mshr miss latency
system.cpu.icache.overall_avg_mshr_miss_latency::total 35512.500000                       # average overall mshr miss latency
system.cpu.icache.replacements                    297                       # number of replacements
system.cpu.icache.ReadReq_hits::.cpu.inst        11482                       # number of ReadReq hits
system.cpu.icache.ReadReq_hits::total           11482                       # number of ReadReq hits
system.cpu.icache.ReadReq_misses::.cpu.inst          616                       # number of ReadReq misses
system.cpu.icache.ReadReq_misses::total           616                       # number of ReadReq misses
system.cpu.icache.ReadReq_miss_latency::.cpu.inst     22591000                       # number of ReadReq miss cycles
system.cpu.icache.ReadReq_miss_latency::total     22591000                       # number of ReadReq miss cycles
system.cpu.icache.ReadReq_accesses::.cpu.inst        12098                       # number of ReadReq accesses(hits+misses)
system.cpu.icache.ReadReq_accesses::total        12098                       # number of ReadReq accesses(hits+misses)
system.cpu.icache.ReadReq_miss_rate::.cpu.inst     0.050918                       # miss rate for ReadReq accesses
system.cpu.icache.ReadReq_miss_rate::total     0.050918                       # miss rate for ReadReq accesses
system.cpu.icache.ReadReq_avg_miss_latency::.cpu.inst 36673.701299                       # average ReadReq miss latency
system.cpu.icache.ReadReq_avg_miss_latency::total 36673.701299                       # average ReadReq miss latency
system.cpu.icache.ReadReq_mshr_misses::.cpu.inst          616                       # number of ReadReq MSHR misses
system.cpu.icache.ReadReq_mshr_misses::total          616                       # number of ReadReq MSHR misses
system.cpu.icache.ReadReq_mshr_miss_latency::.cpu.inst     21875700                       # number of ReadReq MSHR miss cycles
system.cpu.icache.ReadReq_mshr_miss_latency::total     21875700                       # number of ReadReq MSHR miss cycles
system.cpu.icache.ReadReq_mshr_miss_rate::.cpu.inst     0.050918                       # mshr miss rate for ReadReq accesses
system.cpu.icache.ReadReq_mshr_miss_rate::total     0.050918                       # mshr miss rate for ReadReq accesses
system.cpu.icache.ReadReq_avg_mshr_miss_latency::.cpu.inst 35512.500000                       # average ReadReq mshr miss latency
system.cpu.icache.ReadReq_avg_mshr_miss_latency::total 35512.500000                       # average ReadReq mshr miss latency
system.cpu.icache.tags.pwrStateResidencyTicks::UNDEFINED     48611500                       # Cumulative time (in ticks) in various power states
system.cpu.icache.tags.tagsinuse           221.508577                       # Cycle average of tags in use
system.cpu.icache.tags.total_refs               12098                       # Total number of references to valid blocks.
system.cpu.icache.tags.sampled_refs               616                       # Sample count of references to valid blocks.
system.cpu.icache.tags.avg_refs             19.639610                       # Average number of references to valid blocks.
system.cpu.icache.tags.warmup_cycle             68400                       # Cycle when the warmup percentage was hit.
system.cpu.icache.tags.occ_blocks::.cpu.inst   221.508577                       # Average occupied blocks per requestor
system.cpu.icache.tags.occ_percent::.cpu.inst     0.432634                       # Average percentage of cache occupancy
system.cpu.icache.tags.occ_percent::total     0.432634                       # Average percentage of cache occupancy
system.cpu.icache.tags.occ_task_id_blocks::1024          319                       # Occupied blocks per task id
system.cpu.icache.tags.age_task_id_blocks_1024::0           57                       # Occupied blocks per task id
system.cpu.icache.tags.age_task_id_blocks_1024::1          262                       # Occupied blocks per task id
system.cpu.icache.tags.occ_task_id_percent::1024     0.623047                       # Percentage of cache occupancy per task id
system.cpu.icache.tags.tag_accesses             24812                       # Number of tag accesses
system.cpu.icache.tags.data_accesses            24812                       # Number of data accesses
system.cpu.dtb.walker.pwrStateResidencyTicks::UNDEFINED     48611500                       # Cumulative time (in ticks) in various power states
system.cpu.dtb.stage2_mmu.stage2_tlb.walker.pwrStateResidencyTicks::UNDEFINED     48611500                       # Cumulative time (in ticks) in various power states
system.cpu.dcache.pwrStateResidencyTicks::UNDEFINED     48611500                       # Cumulative time (in ticks) in various power states
system.cpu.dcache.demand_hits::.cpu.data        12023                       # number of demand (read+write) hits
system.cpu.dcache.demand_hits::total            12023                       # number of demand (read+write) hits
system.cpu.dcache.overall_hits::.cpu.data        12045                       # number of overall hits
system.cpu.dcache.overall_hits::total           12045                       # number of overall hits
system.cpu.dcache.demand_misses::.cpu.data          231                       # number of demand (read+write) misses
system.cpu.dcache.demand_misses::total            231                       # number of demand (read+write) misses
system.cpu.dcache.overall_misses::.cpu.data          239                       # number of overall misses
system.cpu.dcache.overall_misses::total           239                       # number of overall misses
system.cpu.dcache.demand_miss_latency::.cpu.data     11992400                       # number of demand (read+write) miss cycles
system.cpu.dcache.demand_miss_latency::total     11992400                       # number of demand (read+write) miss cycles
system.cpu.dcache.overall_miss_latency::.cpu.data     11992400                       # number of overall miss cycles
system.cpu.dcache.overall_miss_latency::total     11992400                       # number of overall miss cycles
system.cpu.dcache.demand_accesses::.cpu.data        12254                       # number of demand (read+write) accesses
system.cpu.dcache.demand_accesses::total        12254                       # number of demand (read+write) accesses
system.cpu.dcache.overall_accesses::.cpu.data        12284                       # number of overall (read+write) accesses
system.cpu.dcache.overall_accesses::total        12284                       # number of overall (read+write) accesses
system.cpu.dcache.demand_miss_rate::.cpu.data     0.018851                       # miss rate for demand accesses
system.cpu.dcache.demand_miss_rate::total     0.018851                       # miss rate for demand accesses
system.cpu.dcache.overall_miss_rate::.cpu.data     0.019456                       # miss rate for overall accesses
system.cpu.dcache.overall_miss_rate::total     0.019456                       # miss rate for overall accesses
system.cpu.dcache.demand_avg_miss_latency::.cpu.data 51915.151515                       # average overall miss latency
system.cpu.dcache.demand_avg_miss_latency::total 51915.151515                       # average overall miss latency
system.cpu.dcache.overall_avg_miss_latency::.cpu.data 50177.405858                       # average overall miss latency
system.cpu.dcache.overall_avg_miss_latency::total 50177.405858                       # average overall miss latency
system.cpu.dcache.blocked_cycles::no_mshrs            0                       # number of cycles access was blocked
system.cpu.dcache.blocked_cycles::no_targets            0                       # number of cycles access was blocked
system.cpu.dcache.blocked::no_mshrs                 0                       # number of cycles access was blocked
system.cpu.dcache.blocked::no_targets               0                       # number of cycles access was blocked
system.cpu.dcache.avg_blocked_cycles::no_mshrs          nan                       # average number of cycles each access was blocked
system.cpu.dcache.avg_blocked_cycles::no_targets          nan                       # average number of cycles each access was blocked
system.cpu.dcache.demand_mshr_hits::.cpu.data           54                       # number of demand (read+write) MSHR hits
system.cpu.dcache.demand_mshr_hits::total           54                       # number of demand (read+write) MSHR hits
system.cpu.dcache.overall_mshr_hits::.cpu.data           54                       # number of overall MSHR hits
system.cpu.dcache.overall_mshr_hits::total           54                       # number of overall MSHR hits
system.cpu.dcache.demand_mshr_misses::.cpu.data          177                       # number of demand (read+write) MSHR misses
system.cpu.dcache.demand_mshr_misses::total          177                       # number of demand (read+write) MSHR misses
system.cpu.dcache.overall_mshr_misses::.cpu.data          184                       # number of overall MSHR misses
system.cpu.dcache.overall_mshr_misses::total          184                       # number of overall MSHR misses
system.cpu.dcache.demand_mshr_miss_latency::.cpu.data      8966300                       # number of demand (read+write) MSHR miss cycles
system.cpu.dcache.demand_mshr_miss_latency::total      8966300                       # number of demand (read+write) MSHR miss cycles
system.cpu.dcache.overall_mshr_miss_latency::.cpu.data      9588300                       # number of overall MSHR miss cycles
system.cpu.dcache.overall_mshr_miss_latency::total      9588300                       # number of overall MSHR miss cycles
system.cpu.dcache.demand_mshr_miss_rate::.cpu.data     0.014444                       # mshr miss rate for demand accesses
system.cpu.dcache.demand_mshr_miss_rate::total     0.014444                       # mshr miss rate for demand accesses
system.cpu.dcache.overall_mshr_miss_rate::.cpu.data     0.014979                       # mshr miss rate for overall accesses
system.cpu.dcache.overall_mshr_miss_rate::total     0.014979                       # mshr miss rate for overall accesses
system.cpu.dcache.demand_avg_mshr_miss_latency::.cpu.data 50657.062147                       # average overall mshr miss latency
system.cpu.dcache.demand_avg_mshr_miss_latency::total 50657.062147                       # average overall mshr miss latency
system.cpu.dcache.overall_avg_mshr_miss_latency::.cpu.data 52110.326087                       # average overall mshr miss latency
system.cpu.dcache.overall_avg_mshr_miss_latency::total 52110.326087                       # average overall mshr miss latency
system.cpu.dcache.replacements                      1                       # number of replacements
system.cpu.dcache.ReadReq_hits::.cpu.data         6456                       # number of ReadReq hits
system.cpu.dcache.ReadReq_hits::total            6456                       # number of ReadReq hits
system.cpu.dcache.ReadReq_misses::.cpu.data          108                       # number of ReadReq misses
system.cpu.dcache.ReadReq_misses::total           108                       # number of ReadReq misses
system.cpu.dcache.ReadReq_miss_latency::.cpu.data      5455200                       # number of ReadReq miss cycles
system.cpu.dcache.ReadReq_miss_latency::total      5455200                       # number of ReadReq miss cycles
system.cpu.dcache.ReadReq_accesses::.cpu.data         6564                       # number of ReadReq accesses(hits+misses)
system.cpu.dcache.ReadReq_accesses::total         6564                       # number of ReadReq accesses(hits+misses)
system.cpu.dcache.ReadReq_miss_rate::.cpu.data     0.016453                       # miss rate for ReadReq accesses
system.cpu.dcache.ReadReq_miss_rate::total     0.016453                       # miss rate for ReadReq accesses
system.cpu.dcache.ReadReq_avg_miss_latency::.cpu.data 50511.111111                       # average ReadReq miss latency
system.cpu.dcache.ReadReq_avg_miss_latency::total 50511.111111                       # average ReadReq miss latency
system.cpu.dcache.ReadReq_mshr_hits::.cpu.data            4                       # number of ReadReq MSHR hits
system.cpu.dcache.ReadReq_mshr_hits::total            4                       # number of ReadReq MSHR hits
system.cpu.dcache.ReadReq_mshr_misses::.cpu.data          104                       # number of ReadReq MSHR misses
system.cpu.dcache.ReadReq_mshr_misses::total          104                       # number of ReadReq MSHR misses
system.cpu.dcache.ReadReq_mshr_miss_latency::.cpu.data      5132700                       # number of ReadReq MSHR miss cycles
system.cpu.dcache.ReadReq_mshr_miss_latency::total      5132700                       # number of ReadReq MSHR miss cycles
system.cpu.dcache.ReadReq_mshr_miss_rate::.cpu.data     0.015844                       # mshr miss rate for ReadReq accesses
system.cpu.dcache.ReadReq_mshr_miss_rate::total     0.015844                       # mshr miss rate for ReadReq accesses
system.cpu.dcache.ReadReq_avg_mshr_miss_latency::.cpu.data 49352.884615                       # average ReadReq mshr miss latency
system.cpu.dcache.ReadReq_avg_mshr_miss_latency::total 49352.884615                       # average ReadReq mshr miss latency
system.cpu.dcache.WriteReq_hits::.cpu.data         5567                       # number of WriteReq hits
system.cpu.dcache.WriteReq_hits::total           5567                       # number of WriteReq hits
system.cpu.dcache.WriteReq_misses::.cpu.data          123                       # number of WriteReq misses
system.cpu.dcache.WriteReq_misses::total          123                       # number of WriteReq misses
system.cpu.dcache.WriteReq_miss_latency::.cpu.data      6537200                       # number of WriteReq miss cycles
system.cpu.dcache.WriteReq_miss_latency::total      6537200                       # number of WriteReq miss cycles
system.cpu.dcache.WriteReq_accesses::.cpu.data         5690                       # number of WriteReq accesses(hits+misses)
system.cpu.dcache.WriteReq_accesses::total         5690                       # number of WriteReq accesses(hits+misses)
system.cpu.dcache.WriteReq_miss_rate::.cpu.data     0.021617                       # miss rate for WriteReq accesses
system.cpu.dcache.WriteReq_miss_rate::total     0.021617                       # miss rate for WriteReq accesses
system.cpu.dcache.WriteReq_avg_miss_latency::.cpu.data 53147.967480                       # average WriteReq miss latency
system.cpu.dcache.WriteReq_avg_miss_latency::total 53147.967480                       # average WriteReq miss latency
system.cpu.dcache.WriteReq_mshr_hits::.cpu.data           50                       # number of WriteReq MSHR hits
system.cpu.dcache.WriteReq_mshr_hits::total           50                       # number of WriteReq MSHR hits
system.cpu.dcache.WriteReq_mshr_misses::.cpu.data           73                       # number of WriteReq MSHR misses
system.cpu.dcache.WriteReq_mshr_misses::total           73                       # number of WriteReq MSHR misses
system.cpu.dcache.WriteReq_mshr_miss_latency::.cpu.data      3833600                       # number of WriteReq MSHR miss cycles
system.cpu.dcache.WriteReq_mshr_miss_latency::total      3833600                       # number of WriteReq MSHR miss cycles
system.cpu.dcache.WriteReq_mshr_miss_rate::.cpu.data     0.012830                       # mshr miss rate for WriteReq accesses
system.cpu.dcache.WriteReq_mshr_miss_rate::total     0.012830                       # mshr miss rate for WriteReq accesses
system.cpu.dcache.WriteReq_avg_mshr_miss_latency::.cpu.data 52515.068493                       # average WriteReq mshr miss latency
system.cpu.dcache.WriteReq_avg_mshr_miss_latency::total 52515.068493                       # average WriteReq mshr miss latency
system.cpu.dcache.SoftPFReq_hits::.cpu.data           22                       # number of SoftPFReq hits
system.cpu.dcache.SoftPFReq_hits::total            22                       # number of SoftPFReq hits
system.cpu.dcache.SoftPFReq_misses::.cpu.data            8                       # number of SoftPFReq misses
system.cpu.dcache.SoftPFReq_misses::total            8                       # number of SoftPFReq misses
system.cpu.dcache.SoftPFReq_accesses::.cpu.data           30                       # number of SoftPFReq accesses(hits+misses)
system.cpu.dcache.SoftPFReq_accesses::total           30                       # number of SoftPFReq accesses(hits+misses)
system.cpu.dcache.SoftPFReq_miss_rate::.cpu.data     0.266667                       # miss rate for SoftPFReq accesses
system.cpu.dcache.SoftPFReq_miss_rate::total     0.266667                       # miss rate for SoftPFReq accesses
system.cpu.dcache.SoftPFReq_mshr_misses::.cpu.data            7                       # number of SoftPFReq MSHR misses
system.cpu.dcache.SoftPFReq_mshr_misses::total            7                       # number of SoftPFReq MSHR misses
system.cpu.dcache.SoftPFReq_mshr_miss_latency::.cpu.data       622000                       # number of SoftPFReq MSHR miss cycles
system.cpu.dcache.SoftPFReq_mshr_miss_latency::total       622000                       # number of SoftPFReq MSHR miss cycles
system.cpu.dcache.SoftPFReq_mshr_miss_rate::.cpu.data     0.233333                       # mshr miss rate for SoftPFReq accesses
system.cpu.dcache.SoftPFReq_mshr_miss_rate::total     0.233333                       # mshr miss rate for SoftPFReq accesses
system.cpu.dcache.SoftPFReq_avg_mshr_miss_latency::.cpu.data 88857.142857                       # average SoftPFReq mshr miss latency
system.cpu.dcache.SoftPFReq_avg_mshr_miss_latency::total 88857.142857                       # average SoftPFReq mshr miss latency
system.cpu.dcache.LoadLockedReq_hits::.cpu.data           98                       # number of LoadLockedReq hits
system.cpu.dcache.LoadLockedReq_hits::total           98                       # number of LoadLockedReq hits
system.cpu.dcache.LoadLockedReq_accesses::.cpu.data           98                       # number of LoadLockedReq accesses(hits+misses)
system.cpu.dcache.LoadLockedReq_accesses::total           98                       # number of LoadLockedReq accesses(hits+misses)
system.cpu.dcache.StoreCondReq_hits::.cpu.data           98                       # number of StoreCondReq hits
system.cpu.dcache.StoreCondReq_hits::total           98                       # number of StoreCondReq hits
system.cpu.dcache.StoreCondReq_accesses::.cpu.data           98                       # number of StoreCondReq accesses(hits+misses)
system.cpu.dcache.StoreCondReq_accesses::total           98                       # number of StoreCondReq accesses(hits+misses)
system.cpu.dcache.tags.pwrStateResidencyTicks::UNDEFINED     48611500                       # Cumulative time (in ticks) in various power states
system.cpu.dcache.tags.tagsinuse           126.698451                       # Cycle average of tags in use
system.cpu.dcache.tags.total_refs               12425                       # Total number of references to valid blocks.
system.cpu.dcache.tags.sampled_refs               184                       # Sample count of references to valid blocks.
system.cpu.dcache.tags.avg_refs             67.527174                       # Average number of references to valid blocks.
system.cpu.dcache.tags.warmup_cycle            128200                       # Cycle when the warmup percentage was hit.
system.cpu.dcache.tags.occ_blocks::.cpu.data   126.698451                       # Average occupied blocks per requestor
system.cpu.dcache.tags.occ_percent::.cpu.data     0.123729                       # Average percentage of cache occupancy
system.cpu.dcache.tags.occ_percent::total     0.123729                       # Average percentage of cache occupancy
system.cpu.dcache.tags.occ_task_id_blocks::1024          183                       # Occupied blocks per task id
system.cpu.dcache.tags.age_task_id_blocks_1024::0           17                       # Occupied blocks per task id
system.cpu.dcache.tags.age_task_id_blocks_1024::1          166                       # Occupied blocks per task id
system.cpu.dcache.tags.occ_task_id_percent::1024     0.178711                       # Percentage of cache occupancy per task id
system.cpu.dcache.tags.tag_accesses             25144                       # Number of tag accesses
system.cpu.dcache.tags.data_accesses            25144                       # Number of data accesses
system.cpu.itb.walker.pwrStateResidencyTicks::UNDEFINED     48611500                       # Cumulative time (in ticks) in various power states
system.cpu.itb.stage2_mmu.stage2_tlb.walker.pwrStateResidencyTicks::UNDEFINED     48611500                       # Cumulative time (in ticks) in various power states

---------- End Simulation Statistics   ----------
